OPT_V10/Two_days_first_run/powerflow_results_t3.txt
Pandapower Network Debug Info
==================================================

BUS:
       vm_pu  va_degree      p_mw    q_mvar
0   0.992580   0.123110  0.001090  0.001030
1   0.988069   0.214955  0.001629  0.002126
2   0.984184   0.310973  0.001754  0.003169
3   0.988463   0.189158  0.002968  0.004008
4   0.988053   0.252466  0.003428  0.005601
5   0.992536   0.117022  0.003353  0.004954
6   0.990739   0.129282  0.001154  0.001142
7   0.997293   0.027379  0.001957  0.002195
8   0.997660   0.045410  0.002002  0.003092
9   0.999821   0.001622  0.009440  0.011924
10  0.999828   0.001531  0.009920  0.008928
11  0.999845   0.001370  0.013380  0.012462
12  0.999774   0.001337  0.008627  0.005165
13  0.999745   0.001396  0.013487  0.009645
14  0.999755   0.001420  0.012666  0.012435
15  0.999926   0.000753  0.000000  0.000000
16  0.999926   0.000759  0.000000  0.000000
17  0.999779   0.001368  0.000000  0.000000
18  0.999779   0.001378  0.000000  0.000000
19  1.000000   0.000000 -0.040340 -0.048756
20  1.000000   0.000007  0.000000  0.000000
21  1.000000   0.000000 -0.046832 -0.049335
22  1.000000   0.000007  0.000000  0.000000
--------------------------------------------------

LINE:
    p_from_mw  q_from_mvar   p_to_mw  q_to_mvar         pl_mw       ql_mvar  i_from_ka   i_to_ka      i_ka  vm_from_pu  va_from_degree  vm_to_pu  va_to_degree  loading_percent
0    0.040330     0.044756 -0.040327  -0.044754  3.550293e-06  2.768222e-06   0.002319  0.002319  0.002319    1.000000        0.000007  0.999926      0.000753         1.008215
1    0.046822     0.045335 -0.046811  -0.045326  1.142542e-05  8.908585e-06   0.002509  0.002509  0.002509    1.000000        0.000007  0.999779      0.001368         1.090664
2    0.032744     0.033318 -0.032741  -0.033315  3.019097e-06  2.354040e-06   0.001798  0.001798  0.001798    0.999926        0.000753  0.999845      0.001370         0.781812
3    0.008627     0.005165 -0.008627  -0.005165  3.497940e-08  2.727401e-08   0.000387  0.000387  0.000387    0.999779        0.001368  0.999774      0.001337         0.168306
4    0.026154     0.022080 -0.026153  -0.022079  6.408639e-07  4.996921e-07   0.001318  0.001318  0.001318    0.999779        0.001368  0.999755      0.001420         0.572917
5    0.007573     0.010436 -0.007495  -0.010375  7.777479e-05  6.064228e-05   0.018613  0.018613  0.018613    0.999926        0.000759  0.992580      0.123110         8.092407
6    0.004555     0.006133 -0.004509  -0.006098  4.529459e-05  3.531694e-05   0.011029  0.011029  0.011029    0.999779        0.001378  0.992536      0.117022         4.795070
7    0.001963     0.002200 -0.001957  -0.002195  5.875022e-06  4.580851e-06   0.004256  0.004256  0.004256    0.999779        0.001378  0.997293      0.027379         1.850586
8    0.005503     0.008749 -0.005484  -0.008735  1.837516e-05  1.432742e-05   0.014921  0.014921  0.014921    0.999779        0.001378  0.997660      0.045410         6.487567
9    0.009440     0.011924 -0.009440  -0.011924  8.001461e-08  6.238871e-08   0.000585  0.000585  0.000585    0.999828        0.001531  0.999821      0.001622         0.254553
10   0.019360     0.020853 -0.019360  -0.020853  3.961093e-07  3.088529e-07   0.001095  0.001095  0.001095    0.999845        0.001370  0.999828      0.001531         0.476260
11   0.013487     0.009645 -0.013487  -0.009645  1.345205e-07  1.048878e-07   0.000638  0.000638  0.000638    0.999755        0.001420  0.999745      0.001396         0.277543
12  -0.003396    -0.005305  0.003420   0.005324  2.404075e-05  1.874497e-05   0.009201  0.009201  0.009201    0.988069        0.214955  0.992580      0.123110         4.000390
13  -0.002968    -0.004008  0.002985   0.004022  1.700020e-05  1.325533e-05   0.007283  0.007283  0.007283    0.988463        0.189158  0.992580      0.123110         3.166598
14  -0.001754    -0.003169  0.001766   0.003179  1.225364e-05  9.554362e-06   0.005312  0.005312  0.005312    0.984184        0.310973  0.988069      0.214955         2.309709
15   0.003482     0.005643 -0.003428  -0.005601  5.374391e-05  4.190501e-05   0.009593  0.009593  0.009593    0.997660        0.045410  0.988053      0.252466         4.170756
16  -0.001154    -0.001142  0.001157   0.001144  2.338105e-06  1.823059e-06   0.002365  0.002365  0.002365    0.990739        0.129282  0.992536      0.117022         1.028416
--------------------------------------------------

TRAFO:
    p_hv_mw  q_hv_mvar   p_lv_mw  q_lv_mvar    pl_mw  ql_mvar   i_hv_ka   i_lv_ka  vm_hv_pu  va_hv_degree  vm_lv_pu  va_lv_degree  loading_percent
0  0.007583   0.011436 -0.007573  -0.010436  0.00001    0.001  0.000528  0.018613  0.999926      0.000753  0.999926      0.000759         0.137225
1  0.012030   0.018081 -0.012020  -0.017082  0.00001    0.001  0.000836  0.030155  0.999779      0.001368  0.999779      0.001378         0.217225
2  0.040340   0.048756 -0.040330  -0.044756  0.00001    0.004  0.000522  0.002319  1.000000      0.000000  1.000000      0.000007         0.158203
3  0.046832   0.049335 -0.046822  -0.045335  0.00001    0.004  0.000561  0.002509  1.000000      0.000000  1.000000      0.000007         0.170059
--------------------------------------------------
